[General]
network = org.omnetpp.queueing.Pizza
repeat = 20 
replication-label = #${repetition}
sim-time-limit = 30000s
simtime-resolution = ps

[Config First]
**.U1.interArrivalTime = exponential(2s)
**.U2.interArrivalTime = exponential(4s)
**.PS.serviceTimeForInventoryU1 = exponential(0.8s)
**.PS.serviceTimeForInventoryU2 = exponential(1.0s)
**.PS.serviceTimeDirectU1 = exponential(1.2s)
**.PS.serviceTimeDirectU2 = exponential(1.4s)
**.PS.probabilityProducing = 0.5
**.CS.serviceTimeU1 = exponential(0.8s)
**.CS.serviceTimeU2 = exponential(1.0s)


[Config First-n2]
extends = First
**.PS.maxInventoriedPS = 2


[Config First-n3]
extends = First
**.PS.maxInventoriedPS = 3


[Config First-n4]
extends = First
**.PS.maxInventoriedPS = 4


[Config First-n5]
extends = First
**.PS.maxInventoriedPS = 5



[Config Second]
**.U1.interArrivalTime = exponential(3s)
**.U2.interArrivalTime = exponential(5s)
**.PS.serviceTimeForInventoryU1 = exponential(1.0s)
**.PS.serviceTimeForInventoryU2 = exponential(1.2s)
**.PS.serviceTimeDirectU1 = exponential(1.4s)
**.PS.serviceTimeDirectU2 = exponential(1.4s)
**.PS.probabilityProducing = 0.7
**.CS.serviceTimeU1 = exponential(1.1s)
**.CS.serviceTimeU2 = exponential(1.4s)


[Config Second-n2]
extends = Second
**.PS.maxInventoriedPS = 2


[Config Second-n3]
extends = Second
**.PS.maxInventoriedPS = 3


[Config Second-n4]
extends = Second
**.PS.maxInventoriedPS = 4


[Config Second-n5]
extends = Second
**.PS.maxInventoriedPS = 5



[Config Third]
**.U1.interArrivalTime = exponential(4s)
**.U2.interArrivalTime = exponential(6s)
**.PS.serviceTimeForInventoryU1 = exponential(1.4s)
**.PS.serviceTimeForInventoryU2 = exponential(1.4s)
**.PS.serviceTimeDirectU1 = exponential(1.8s)
**.PS.serviceTimeDirectU2 = exponential(1.8s)
**.PS.probabilityProducing = 0.8
**.CS.serviceTimeU1 = exponential(2.3s)
**.CS.serviceTimeU2 = exponential(2.3s)


[Config Third-n2]
extends = Third
**.PS.maxInventoriedPS = 2


[Config Third-n3]
extends = Third
**.PS.maxInventoriedPS = 3


[Config Third-n4]
extends = Third
**.PS.maxInventoriedPS = 4


[Config Third-n5]
extends = Third
**.PS.maxInventoriedPS = 5
